@<TRIPOS>MOLECULE
026
   57    61     1     0     0
SMALL
bcc


@<TRIPOS>ATOM
      1 C1          18.1370    40.7130     6.0470 ca       525 026       0.038400
      2 C11         21.3870    40.8900     5.1570 cc       525 026      -0.201900
      3 C15         23.2700    41.3770     3.1110 cc       525 026       0.590800
      4 C17         21.0720    41.8580     4.0680 c        525 026       0.744100
      5 C19         21.6310    43.0470     2.0230 c3       525 026       0.076300
      6 C2          19.3570    40.7550     6.8750 ca       525 026      -0.019000
      7 C21         25.1440    40.3650     1.8380 c3       525 026       0.178300
      8 C22         26.3760    40.5660     2.7310 c3       525 026      -0.118400
      9 C23         26.9830    41.9770     2.6420 c3       525 026      -0.087000
     10 C24         25.9210    43.0630     2.7770 c3       525 026      -0.118400
     11 C25         24.8330    42.8020     1.7510 c3       525 026       0.178300
     12 C26         28.0620    42.1530     3.6990 c3       525 026       0.069500
     13 C27         29.3660    42.0920     2.9240 c3       525 026       0.122100
     14 C29         27.7140    42.1560     1.3150 c3       525 026       0.109400
     15 C3          19.2790    41.2230     8.1840 ca       525 026      -0.093000
     16 C30         30.4790    42.9060     3.5690 c3       525 026      -0.124100
     17 C4          18.0680    41.6340     8.7370 ca       525 026      -0.119000
     18 C5          16.8850    41.6010     8.0040 ca       525 026      -0.103000
     19 C6          16.8730    41.1580     6.6850 ca       525 026       0.015400
     20 C7          20.6950    40.3620     6.3590 cd       525 026       0.006000
     21 C8          21.5820    39.4760     6.9440 cd       525 026      -0.174000
     22 C9          22.7220    39.4410     6.1610 cc       525 026      -0.100300
     23 N10         22.5620    40.2810     5.1300 na       525 026       0.179000
     24 N14         23.5060    40.5150     4.1300 n2       525 026      -0.630100
     25 N16         22.0260    42.0840     3.0600 n        525 026      -0.392300
     26 N20         24.3380    41.5090     2.2060 nh       525 026      -0.667600
     27 N31         27.9250    43.4670     4.3510 nz       525 026      -0.829600
     28 O18         19.9860    42.4780     4.0230 o        525 026      -0.561500
     29 O28         29.0270    42.6180     1.6440 os       525 026      -0.397600
     30 Cl12        18.2120    40.1220     4.3520 cl       525 026      -0.069400
     31 Cl13        15.3340    41.1330     5.7680 cl       525 026      -0.060400
     32 H212        24.6340    39.4280     2.0660 h1       525 026       0.081950
     33 H213        25.4190    40.4090     0.7840 h1       525 026       0.081950
     34 H222        26.0840    40.3820     3.7650 hc       525 026       0.062950
     35 H223        27.1370    39.8390     2.4480 hc       525 026       0.062950
     36 H242        25.4950    43.0370     3.7800 hc       525 026       0.062950
     37 H243        26.3700    44.0390     2.5940 hc       525 026       0.062950
     38 H252        25.2380    42.7440     0.7410 h1       525 026       0.081950
     39 H253        24.0520    43.5600     1.8130 h1       525 026       0.081950
     40 H26         28.0140    41.3510     4.4360 hx       525 026       0.124700
     41 H27         29.6830    41.0550     2.8210 h1       525 026       0.095700
     42 H292        27.1990    42.8910     0.6960 h1       525 026       0.084700
     43 H293        27.7740    41.2030     0.7900 h1       525 026       0.084700
     44 H3          20.1760    41.2670     8.7840 ha       525 026       0.144000
     45 H4          18.0460    41.9870     9.7570 ha       525 026       0.148000
     46 H5          15.9640    41.9240     8.4660 ha       525 026       0.158000
     47 H8          21.4140    38.9130     7.8500 ha       525 026       0.178000
     48 H9          23.5970    38.8370     6.3500 h4       525 026       0.172000
     49 H311        27.2330    43.4080     5.0850 hn       525 026       0.463133
     50 H312        28.8130    43.7420     4.7470 hn       525 026       0.463133
     51 H313        27.6340    44.1530     3.6690 hn       525 026       0.463133
     52 H191        20.5500    43.1870     2.0500 h1       525 026       0.063700
     53 H192        22.1250    44.0010     2.2070 h1       525 026       0.063700
     54 H193        21.9250    42.6680     1.0440 h1       525 026       0.063700
     55 H301        31.4340    42.6400     3.1160 hc       525 026       0.069367
     56 H302        30.2880    43.9680     3.4160 hc       525 026       0.069367
     57 H303        30.5120    42.6940     4.6380 hc       525 026       0.069367
@<TRIPOS>BOND
     1     1     6 ar  
     2     1    19 ar  
     3     1    30 1   
     4     2     4 1   
     5     2    20 2   
     6     2    23 1   
     7     3    24 2   
     8     3    25 1   
     9     3    26 1   
    10     4    25 1   
    11     4    28 2   
    12     5    25 1   
    13     5    52 1   
    14     5    53 1   
    15     5    54 1   
    16     6    15 ar  
    17     6    20 1   
    18     7     8 1   
    19     7    26 1   
    20     7    32 1   
    21     7    33 1   
    22     8     9 1   
    23     8    34 1   
    24     8    35 1   
    25     9    10 1   
    26     9    12 1   
    27     9    14 1   
    28    10    11 1   
    29    10    36 1   
    30    10    37 1   
    31    11    26 1   
    32    11    38 1   
    33    11    39 1   
    34    12    13 1   
    35    12    27 1   
    36    12    40 1   
    37    13    16 1   
    38    13    29 1   
    39    13    41 1   
    40    14    29 1   
    41    14    42 1   
    42    14    43 1   
    43    15    17 ar  
    44    15    44 1   
    45    16    55 1   
    46    16    56 1   
    47    16    57 1   
    48    17    18 ar  
    49    17    45 1   
    50    18    19 ar  
    51    18    46 1   
    52    19    31 1   
    53    20    21 1   
    54    21    22 2   
    55    21    47 1   
    56    22    23 1   
    57    22    48 1   
    58    23    24 1   
    59    27    49 1   
    60    27    50 1   
    61    27    51 1   
@<TRIPOS>SUBSTRUCTURE
     1 026         1 TEMP              0 ****  ****    0 ROOT
