@<TRIPOS>MOLECULE
5OD
   43    45     1     0     0
SMALL
bcc


@<TRIPOS>ATOM
      1 C1          21.0510    40.7360     4.9330 cp       523 5OD       0.316500
      2 C3          22.3040    41.9870     3.3890 ca       523 5OD       0.277900
      3 C11         26.8860    41.3930     3.8170 c3       523 5OD      -0.137900
      4 C12         27.1970    42.7380     3.0440 c3       523 5OD       0.160200
      5 C13         25.8660    43.5020     2.7240 c3       523 5OD      -0.137900
      6 C14         24.7590    42.6120     2.1010 c3       523 5OD       0.180300
      7 C15         19.4320    40.7620     6.8640 ca       523 5OD       0.013400
      8 C16         18.1370    40.5960     7.3700 ca       523 5OD       0.017400
      9 C17         17.0850    40.1870     6.5240 ca       523 5OD      -0.100000
     10 C18         17.3520    39.8990     5.1690 ca       523 5OD      -0.116000
     11 C19         18.6480    40.1100     4.6580 ca       523 5OD      -0.085000
     12 C23         27.9810    42.4520     1.7320 c3       523 5OD      -0.135100
     13 N2          21.1390    41.7310     4.0090 nb       523 5OD      -0.573000
     14 C4          23.4310    41.1720     3.6090 ca       523 5OD       0.480900
     15 N5          23.3420    40.1800     4.5450 nb       523 5OD      -0.777000
     16 C6          22.1830    39.9260     5.2010 ca       523 5OD       0.567900
     17 N7          22.1780    38.8970     6.0800 nv       523 5OD      -0.924500
     18 C8          19.6960    40.5400     5.5090 cp       523 5OD      -0.143500
     19 N9          24.6090    41.4200     2.9630 nh       523 5OD      -0.700300
     20 C10         25.7670    40.5530     3.1260 c3       523 5OD       0.180300
     21 Cl1         20.6820    41.3450     7.9130 cl       523 5OD      -0.072400
     22 Cl2         17.8420    40.9550     9.0520 cl       523 5OD      -0.048400
     23 N22         28.0860    43.5790     3.8750 nz       523 5OD      -0.853600
     24 H3          22.3760    42.8270     2.7140 h4       523 5OD       0.058100
     25 H112        27.7960    40.7950     3.8590 hc       523 5OD       0.075700
     26 H113        26.5730    41.6330     4.8330 hc       523 5OD       0.075700
     27 H132        26.0930    44.3060     2.0240 hc       523 5OD       0.075700
     28 H133        25.4840    43.9400     3.6460 hc       523 5OD       0.075700
     29 H142        23.8190    43.1620     2.0600 h1       523 5OD       0.082450
     30 H143        25.0520    42.3070     1.0970 h1       523 5OD       0.082450
     31 H17         16.0810    40.0950     6.9110 ha       523 5OD       0.164000
     32 H18         16.5690    39.5200     4.5290 ha       523 5OD       0.154000
     33 H19         18.8440    39.9430     3.6090 ha       523 5OD       0.153000
     34 H102        26.1110    40.2040     2.1520 h1       523 5OD       0.082450
     35 H103        25.5050    39.7000     3.7520 h1       523 5OD       0.082450
     36 H71         21.3350    38.6720     6.5890 hn       523 5OD       0.423300
     37 H72         23.0170    38.3540     6.2270 hn       523 5OD       0.423300
     38 H231        28.9030    41.9210     1.9680 hc       523 5OD       0.078700
     39 H232        27.3690    41.8400     1.0690 hc       523 5OD       0.078700
     40 H233        28.2200    43.3940     1.2390 hc       523 5OD       0.078700
     41 H221        27.6250    43.7980     4.7470 hn       523 5OD       0.454467
     42 H222        28.2970    44.4350     3.3820 hn       523 5OD       0.454467
     43 H223        28.9430    43.0790     4.0630 hn       523 5OD       0.454467
@<TRIPOS>BOND
     1     1    13 ar  
     2     1    16 ar  
     3     1    18 1   
     4     2    13 ar  
     5     2    14 ar  
     6     2    24 1   
     7     3     4 1   
     8     3    20 1   
     9     3    25 1   
    10     3    26 1   
    11     4     5 1   
    12     4    12 1   
    13     4    23 1   
    14     5     6 1   
    15     5    27 1   
    16     5    28 1   
    17     6    19 1   
    18     6    29 1   
    19     6    30 1   
    20     7     8 ar  
    21     7    18 ar  
    22     7    21 1   
    23     8     9 ar  
    24     8    22 1   
    25     9    10 ar  
    26     9    31 1   
    27    10    11 ar  
    28    10    32 1   
    29    11    18 ar  
    30    11    33 1   
    31    12    38 1   
    32    12    39 1   
    33    12    40 1   
    34    14    15 ar  
    35    14    19 1   
    36    15    16 ar  
    37    16    17 1   
    38    17    36 1   
    39    17    37 1   
    40    19    20 1   
    41    20    34 1   
    42    20    35 1   
    43    23    41 1   
    44    23    42 1   
    45    23    43 1   
@<TRIPOS>SUBSTRUCTURE
     1 5OD         1 TEMP              0 ****  ****    0 ROOT
