@<TRIPOS>MOLECULE
Cpptraj Generated mol2 file.
   43    45     1     0     0
SMALL
USER_CHARGES


@<TRIPOS>ATOM
      1 C1         21.1650   40.7380    4.6000 cp         1 5OD      0.316500
      2 C3         22.4890   42.0680    3.3750 ca         1 5OD      0.277900
      3 C11        27.1850   42.2200    4.5710 c3         1 5OD     -0.137900
      4 C12        27.5590   43.3160    3.5500 c3         1 5OD      0.160200
      5 C13        26.3190   43.7510    2.7100 c3         1 5OD     -0.137900
      6 C14        25.2770   42.6050    2.2480 c3         1 5OD      0.180300
      7 C15        19.6370   40.6490    6.6940 ca         1 5OD      0.013400
      8 C16        18.4080   40.3100    7.2770 ca         1 5OD      0.017400
      9 C17        17.3940   39.8610    6.4660 ca         1 5OD     -0.100000
     10 C18        17.5370   39.6030    5.1340 ca         1 5OD     -0.116000
     11 C19        18.7960   39.8480    4.5520 ca         1 5OD     -0.085000
     12 C23        28.6330   42.6580    2.6120 c3         1 5OD     -0.135100
     13 N2         21.2230   41.7100    3.6630 nb         1 5OD     -0.573000
     14 C4         23.6820   41.2710    3.6750 ca         1 5OD      0.480900
     15 N5         23.5800   40.1610    4.4160 nb         1 5OD     -0.777000
     16 C6         22.3230   39.9080    4.8730 ca         1 5OD      0.567900
     17 N7         22.3490   38.7630    5.6630 nv         1 5OD     -0.924500
     18 C8         19.8580   40.4440    5.3140 cp         1 5OD     -0.143500
     19 N9         24.9940   41.6910    3.3530 nh         1 5OD     -0.700300
     20 C10        26.2320   41.1310    4.0630 c3         1 5OD      0.180300
     21 Cl1        20.8640   41.4270    7.5570 cl         1 5OD     -0.072400
     22 Cl2        17.9490   40.6940    8.9440 cl         1 5OD     -0.048400
     23 N22        28.1910   44.4470    4.2080 nz         1 5OD     -0.853600
     24 H3         22.6130   42.8520    2.6290 h4         1 5OD      0.058100
     25 H112       27.9470   41.6510    5.1190 hc         1 5OD      0.075700
     26 H113       26.6930   42.7720    5.3800 hc         1 5OD      0.075700
     27 H132       26.5360   44.3420    1.8120 hc         1 5OD      0.075700
     28 H133       25.7490   44.4210    3.3660 hc         1 5OD      0.075700
     29 H142       24.3490   43.0380    1.8540 h1         1 5OD      0.082450
     30 H143       25.8220   42.1110    1.4350 h1         1 5OD      0.082450
     31 H17        16.4180   39.5970    6.8610 ha         1 5OD      0.164000
     32 H18        16.7530   39.1610    4.5250 ha         1 5OD      0.154000
     33 H19        18.8800   39.6550    3.4860 ha         1 5OD      0.153000
     34 H102       26.8060   40.4600    3.4120 h1         1 5OD      0.082450
     35 H103       25.9240   40.6570    5.0030 h1         1 5OD      0.082450
     36 H71        23.2100   38.3460    5.9920 hn         1 5OD      0.423300
     37 H72        21.4900   38.5130    6.1360 hn         1 5OD      0.423300
     38 H231       28.2810   41.7810    2.0540 hc         1 5OD      0.078700
     39 H232       28.9660   43.2410    1.7440 hc         1 5OD      0.078700
     40 H233       29.4070   42.2190    3.2540 hc         1 5OD      0.078700
     41 H221       28.8870   44.1780    4.9190 hn         1 5OD      0.454467
     42 H222       27.4650   44.8800    4.7950 hn         1 5OD      0.454467
     43 H223       28.4190   45.1610    3.5020 hn         1 5OD      0.454467
@<TRIPOS>BOND
    1    19    20 1
    2    16    17 1
    3    15    16 1
    4    14    15 1
    5    14    19 1
    6    11    18 1
    7    10    11 1
    8     9    10 1
    9     8     9 1
   10     8    22 1
   11     7     8 1
   12     7    18 1
   13     7    21 1
   14     6    19 1
   15     5     6 1
   16     4     5 1
   17     4    12 1
   18     4    23 1
   19     3     4 1
   20     3    20 1
   21     2    13 1
   22     2    14 1
   23     1    13 1
   24     1    16 1
   25     1    18 1
   26    23    41 1
   27    23    42 1
   28    23    43 1
   29    20    34 1
   30    20    35 1
   31    17    36 1
   32    17    37 1
   33    12    38 1
   34    12    39 1
   35    12    40 1
   36    11    33 1
   37    10    32 1
   38     9    31 1
   39     6    29 1
   40     6    30 1
   41     5    27 1
   42     5    28 1
   43     3    25 1
   44     3    26 1
   45     2    24 1
@<TRIPOS>SUBSTRUCTURE
      1 5OD               1 ****               0 ****  **** 
