@<TRIPOS>MOLECULE
UNK
   67    72     1     0     0
SMALL
bcc


@<TRIPOS>ATOM
      1 C1          22.1910    39.5260     6.2690 cc       900 UNK      -0.074300
      2 N1          22.1470    40.2890     5.1210 na       900 UNK       0.157000
      3 O1          19.6530    42.3770     3.6660 o        900 UNK      -0.583500
      4 C2          20.9680    39.6390     6.8730 cd       900 UNK      -0.206000
      5 N2          21.7610    41.8670     2.9520 n        900 UNK      -0.430300
      6 O2          29.0390    42.4300     1.7450 os       900 UNK      -0.413600
      7 C3          20.1350    40.4150     6.0150 cd       900 UNK       0.048000
      8 N3          23.2240    40.4660     4.2540 n2       900 UNK      -0.593100
      9 O3          15.1760    43.3710     4.2730 o        900 UNK      -0.856800
     10 C4          20.9040    40.8650     4.9710 cc       900 UNK      -0.237900
     11 N4          24.0420    41.5220     2.3080 nh       900 UNK      -0.636600
     12 O4          14.3950    45.0690     5.3980 o        900 UNK      -0.856800
     13 C5          20.7150    41.7650     3.8140 c        900 UNK       0.744100
     14 N5          28.2520    43.7260     4.2200 nz       900 UNK      -0.879600
     15 C6          23.0240    41.2490     3.2300 cc       900 UNK       0.583800
     16 N6          14.6390    41.8270     6.8000 na       900 UNK       0.008800
     17 C7          21.5120    42.5560     1.6670 c3       900 UNK       0.079300
     18 C8          24.5590    42.8730     2.1030 c3       900 UNK       0.163300
     19 C9          25.7490    43.1590     3.0290 c3       900 UNK      -0.113400
     20 C10         26.9110    42.1550     2.8050 c3       900 UNK      -0.090000
     21 C11         26.3190    40.7180     2.9020 c3       900 UNK      -0.113400
     22 C12         25.0720    40.5270     2.0100 c3       900 UNK       0.163300
     23 C13         27.6440    42.3750     1.4590 c3       900 UNK       0.116400
     24 C14         29.2750    41.8280     3.0040 c3       900 UNK       0.125100
     25 C15         28.0660    42.3180     3.8100 c3       900 UNK       0.093500
     26 C16         30.6620    42.1810     3.5640 c3       900 UNK      -0.116100
     27 C17         18.7100    40.7140     6.2380 ca       900 UNK      -0.042000
     28 C18         18.2530    41.1990     7.4840 ca       900 UNK      -0.111000
     29 C19         16.9040    41.5640     7.6650 ca       900 UNK      -0.111500
     30 C20         15.9850    41.4360     6.6030 ca       900 UNK       0.015800
     31 C21         16.4210    40.8930     5.3790 ca       900 UNK      -0.111500
     32 C22         17.7700    40.5340     5.2010 ca       900 UNK      -0.111000
     33 C23         13.9520    42.9170     6.2520 cc       900 UNK      -0.134900
     34 C24         12.7150    42.9640     6.8350 cd       900 UNK      -0.157000
     35 C25         12.6050    41.8630     7.7290 cd       900 UNK      -0.209000
     36 C26         13.7940    41.1910     7.6960 cc       900 UNK      -0.154300
     37 C27         14.5310    43.8340     5.2390 c        900 UNK       0.948200
     38 H1          23.0890    38.9990     6.5580 h4       900 UNK       0.182000
     39 H2          20.6850    39.1710     7.8050 ha       900 UNK       0.167000
     40 H3          20.4980    42.3820     1.3070 h1       900 UNK       0.056367
     41 H4          21.6270    43.6340     1.7850 h1       900 UNK       0.056367
     42 H5          22.1560    42.2290     0.8520 h1       900 UNK       0.056367
     43 H6          24.8510    42.9900     1.0590 h1       900 UNK       0.075950
     44 H7          23.7940    43.6220     2.2850 h1       900 UNK       0.075950
     45 H8          26.0670    44.1860     2.8550 hc       900 UNK       0.066950
     46 H9          25.4170    43.1160     4.0660 hc       900 UNK       0.066950
     47 H10         26.0410    40.5080     3.9360 hc       900 UNK       0.066950
     48 H11         27.0640    39.9670     2.6390 hc       900 UNK       0.066950
     49 H12         24.6750    39.5170     2.1400 h1       900 UNK       0.075950
     50 H13         25.3420    40.6050     0.9570 h1       900 UNK       0.075950
     51 H14         27.4530    41.5700     0.7490 h1       900 UNK       0.061700
     52 H15         27.3530    43.3070     0.9740 h1       900 UNK       0.061700
     53 H16         29.2220    40.7440     2.8820 h1       900 UNK       0.067700
     54 H17         27.9190    41.7230     4.7130 hx       900 UNK       0.117700
     55 H18         28.4220    44.3110     3.4090 hn       900 UNK       0.477133
     56 H19         27.4180    44.0640     4.6830 hn       900 UNK       0.477133
     57 H20         30.7990    41.7740     4.5660 hc       900 UNK       0.065700
     58 H21         31.4450    41.7580     2.9340 hc       900 UNK       0.065700
     59 H22         30.8290    43.2570     3.6090 hc       900 UNK       0.065700
     60 H23         18.9510    41.3220     8.2990 ha       900 UNK       0.144500
     61 H24         16.5810    41.9600     8.6160 ha       900 UNK       0.156500
     62 H25         15.7330    40.7750     4.5600 ha       900 UNK       0.156500
     63 H26         18.0890    40.1410     4.2450 ha       900 UNK       0.144500
     64 H27         11.9600    43.7060     6.6200 ha       900 UNK       0.158000
     65 H28         11.7530    41.5990     8.3380 ha       900 UNK       0.147000
     66 H29         14.1230    40.3170     8.2380 h4       900 UNK       0.162000
     67 H30         29.0190    43.7880     4.8820 hn       900 UNK       0.477133
@<TRIPOS>BOND
     1     1     2 1   
     2     1     4 2   
     3     1    38 1   
     4     2     8 1   
     5     2    10 1   
     6     3    13 2   
     7     4     7 1   
     8     4    39 1   
     9     5    13 1   
    10     5    15 1   
    11     5    17 1   
    12     6    23 1   
    13     6    24 1   
    14     7    10 2   
    15     7    27 1   
    16     8    15 2   
    17     9    37 1   
    18    10    13 1   
    19    11    15 1   
    20    11    18 1   
    21    11    22 1   
    22    12    37 1   
    23    14    25 1   
    24    14    55 1   
    25    14    56 1   
    26    14    67 1   
    27    16    30 1   
    28    16    33 1   
    29    16    36 1   
    30    17    40 1   
    31    17    41 1   
    32    17    42 1   
    33    18    19 1   
    34    18    43 1   
    35    18    44 1   
    36    19    20 1   
    37    19    45 1   
    38    19    46 1   
    39    20    21 1   
    40    20    23 1   
    41    20    25 1   
    42    21    22 1   
    43    21    47 1   
    44    21    48 1   
    45    22    49 1   
    46    22    50 1   
    47    23    51 1   
    48    23    52 1   
    49    24    25 1   
    50    24    26 1   
    51    24    53 1   
    52    25    54 1   
    53    26    57 1   
    54    26    58 1   
    55    26    59 1   
    56    27    28 ar  
    57    27    32 ar  
    58    28    29 ar  
    59    28    60 1   
    60    29    30 ar  
    61    29    61 1   
    62    30    31 ar  
    63    31    32 ar  
    64    31    62 1   
    65    32    63 1   
    66    33    34 2   
    67    33    37 1   
    68    34    35 1   
    69    34    64 1   
    70    35    36 2   
    71    35    65 1   
    72    36    66 1   
@<TRIPOS>SUBSTRUCTURE
     1 UNK         1 TEMP              0 ****  ****    0 ROOT
