@<TRIPOS>MOLECULE
Cpptraj Generated mol2 file.
   35    37     1     0     0
SMALL
USER_CHARGES


@<TRIPOS>ATOM
      1 C1         19.4940   42.0600    2.9400 cp         1 5OD      0.315500
      2 C3         21.5310   42.9260    2.2060 ca         1 5OD      0.272900
      3 C11        25.4930   40.3040    3.8450 c3         1 5OD     -0.108900
      4 C12        26.4710   41.4120    3.2560 c3         1 5OD     -0.078400
      5 C13        25.8770   42.7910    3.1710 c3         1 5OD     -0.108900
      6 C14        24.4910   42.7340    2.4820 c3         1 5OD      0.178300
      7 C15        17.1910   41.4980    3.8810 ca         1 5OD     -0.105500
      8 C16        15.9130   41.8440    4.2490 ca         1 5OD     -0.135000
      9 C17        15.3880   43.0690    3.9570 ca         1 5OD     -0.121000
     10 C18        16.1510   43.8800    3.1440 ca         1 5OD     -0.135000
     11 C19        17.4650   43.5840    2.7250 ca         1 5OD     -0.105500
     12 N2         20.2430   42.9140    2.0930 nb         1 5OD     -0.613000
     13 C4         22.2230   41.9990    3.1250 ca         1 5OD      0.498900
     14 N5         21.4780   41.1120    3.8320 nb         1 5OD     -0.680000
     15 C6         20.1260   41.1130    3.7520 ca         1 5OD      0.316900
     16 C8         18.0750   42.3940    3.1830 cp         1 5OD     -0.137500
     17 N9         23.6080   41.7880    3.1490 nh         1 5OD     -0.711300
     18 C10        24.0780   40.3960    3.0840 c3         1 5OD      0.178300
     19 H3         22.0690   43.4900    1.4450 h4         1 5OD      0.037100
     20 H112       25.9470   39.3060    3.8830 hc         1 5OD      0.052450
     21 H113       25.3740   40.6730    4.8710 hc         1 5OD      0.052450
     22 H132       26.5410   43.4730    2.6260 hc         1 5OD      0.052450
     23 H133       25.7100   43.2620    4.1480 hc         1 5OD      0.052450
     24 H142       24.0800   43.7440    2.3580 h1         1 5OD      0.059200
     25 H143       24.7820   42.3440    1.4990 h1         1 5OD      0.059200
     26 H17        14.4150   43.3910    4.3150 ha         1 5OD      0.132000
     27 H18        15.7720   44.8460    2.8210 ha         1 5OD      0.133500
     28 H19        18.0400   44.3400    2.1990 ha         1 5OD      0.140500
     29 H102       24.1520   40.0420    2.0480 h1         1 5OD      0.059200
     30 H103       23.5540   39.6870    3.7370 h1         1 5OD      0.059200
     31 H122       26.9060   41.1400    2.2860 hc         1 5OD      0.041700
     32 H123       27.2550   41.4880    4.0190 hc         1 5OD      0.041700
     33 H15        17.5240   40.4950    4.1310 ha         1 5OD      0.140500
     34 H16        15.4010   41.1290    4.8860 ha         1 5OD      0.133500
     35 H6         19.6000   40.4680    4.4540 h4         1 5OD      0.033100
@<TRIPOS>BOND
    1    17    18 1
    2    14    15 1
    3    13    14 1
    4    13    17 1
    5    11    16 1
    6    10    11 1
    7     9    10 1
    8     8     9 1
    9     7     8 1
   10     7    16 1
   11     6    17 1
   12     5     6 1
   13     4     5 1
   14     3     4 1
   15     3    18 1
   16     2    12 1
   17     2    13 1
   18     1    12 1
   19     1    15 1
   20     1    16 1
   21    18    29 1
   22    18    30 1
   23    15    35 1
   24    11    28 1
   25    10    27 1
   26     9    26 1
   27     8    34 1
   28     7    33 1
   29     6    24 1
   30     6    25 1
   31     5    22 1
   32     5    23 1
   33     4    31 1
   34     4    32 1
   35     3    20 1
   36     3    21 1
   37     2    19 1
@<TRIPOS>SUBSTRUCTURE
      1 5OD               1 ****               0 ****  **** 
