@<TRIPOS>MOLECULE
Cpptraj Generated mol2 file.
   67    72     1     0     0
SMALL
USER_CHARGES


@<TRIPOS>ATOM
      1 C1         21.7200   39.7270    6.3330 cc         1 UNK     -0.074300
      2 N1         21.7780   40.4090    5.1400 na         1 UNK      0.157000
      3 O1         19.1260   41.9280    3.1250 o          1 UNK     -0.583500
      4 C2         20.4880   39.9470    6.8290 cd         1 UNK     -0.206000
      5 N2         21.5260   41.9590    2.8660 n          1 UNK     -0.430300
      6 O2         28.9840   42.0950    2.3250 os         1 UNK     -0.413600
      7 C3         19.7570   40.5520    5.7900 cd         1 UNK      0.048000
      8 N3         22.9410   40.6510    4.3970 n2         1 UNK     -0.593100
      9 O3         14.8170   43.3690    4.3150 o          1 UNK     -0.856800
     10 C4         20.5380   40.8850    4.7880 cc         1 UNK     -0.237900
     11 N4         23.9250   41.8470    2.7200 nh         1 UNK     -0.636600
     12 O4         12.8680   43.9630    4.3280 o          1 UNK     -0.856800
     13 C5         20.2760   41.5760    3.5660 c          1 UNK      0.744100
     14 N5         28.1240   43.8890    4.8400 nz         1 UNK     -0.879600
     15 C6         22.7660   41.4140    3.3560 cc         1 UNK      0.583800
     16 N6         14.1690   41.1800    6.3560 na         1 UNK      0.008800
     17 C7         21.4670   42.8190    1.7290 c3         1 UNK      0.079300
     18 C8         24.4380   43.2570    2.6600 c3         1 UNK      0.163300
     19 C9         25.6720   43.4630    3.3880 c3         1 UNK     -0.113400
     20 C10        26.7980   42.4250    3.2600 c3         1 UNK     -0.090000
     21 C11        26.1790   41.0370    3.3130 c3         1 UNK     -0.113400
     22 C12        24.9600   40.8360    2.3350 c3         1 UNK      0.163300
     23 C13        27.6500   42.6200    2.0460 c3         1 UNK      0.116400
     24 C14        29.0830   41.7290    3.6930 c3         1 UNK      0.125100
     25 C15        27.8550   42.4810    4.4030 c3         1 UNK      0.093500
     26 C16        30.4750   42.2770    4.2260 c3         1 UNK     -0.116100
     27 C17        18.3470   40.7190    5.8670 ca         1 UNK     -0.042000
     28 C18        17.7800   41.4440    6.9640 ca         1 UNK     -0.111000
     29 C19        16.3930   41.6010    7.1250 ca         1 UNK     -0.111500
     30 C20        15.5740   41.1590    6.1200 ca         1 UNK      0.015800
     31 C21        16.0520   40.4920    4.9320 ca         1 UNK     -0.111500
     32 C22        17.3960   40.2280    4.8840 ca         1 UNK     -0.111000
     33 C23        13.3340   42.0850    5.6750 cc         1 UNK     -0.134900
     34 C24        12.1090   41.8340    6.1770 cd         1 UNK     -0.157000
     35 C25        12.1920   40.8130    7.1660 cd         1 UNK     -0.209000
     36 C26        13.5130   40.3840    7.2960 cc         1 UNK     -0.154300
     37 C27        13.7140   43.1790    4.7260 c          1 UNK      0.948200
     38 H1         22.6100   39.3190    6.7940 h4         1 UNK      0.182000
     39 H2         20.0700   39.4820    7.7150 ha         1 UNK      0.167000
     40 H3         22.3710   42.7190    1.1150 h1         1 UNK      0.056367
     41 H4         20.5820   42.6660    1.0980 h1         1 UNK      0.056367
     42 H5         21.3300   43.8360    2.1150 h1         1 UNK      0.056367
     43 H6         24.4320   43.6120    1.6220 h1         1 UNK      0.075950
     44 H7         23.7280   43.9080    3.1860 h1         1 UNK      0.075950
     45 H8         26.0760   44.4670    3.2100 hc         1 UNK      0.066950
     46 H9         25.4050   43.4430    4.4510 hc         1 UNK      0.066950
     47 H10        25.8900   40.7360    4.3280 hc         1 UNK      0.066950
     48 H11        26.9600   40.3230    3.0230 hc         1 UNK      0.066950
     49 H12        24.5260   39.8340    2.4420 h1         1 UNK      0.075950
     50 H13        25.1140   40.9410    1.2540 h1         1 UNK      0.075950
     51 H14        27.1700   42.2730    1.1230 h1         1 UNK      0.061700
     52 H15        27.8630   43.6810    1.8690 h1         1 UNK      0.061700
     53 H16        28.9470   40.6420    3.7480 h1         1 UNK      0.067700
     54 H17        27.6420   41.9420    5.3270 hx         1 UNK      0.117700
     55 H18        28.4870   44.5440    4.1330 hn         1 UNK      0.477133
     56 H19        27.3670   44.4570    5.2480 hn         1 UNK      0.477133
     57 H20        30.5710   41.8570    5.2350 hc         1 UNK      0.065700
     58 H21        31.2440   41.9170    3.5310 hc         1 UNK      0.065700
     59 H22        30.5890   43.3680    4.2470 hc         1 UNK      0.065700
     60 H23        18.4980   41.7110    7.7340 ha         1 UNK      0.144500
     61 H24        15.9650   41.9660    8.0540 ha         1 UNK      0.156500
     62 H25        15.3940   40.2760    4.0960 ha         1 UNK      0.156500
     63 H26        17.8090   39.6210    4.0840 ha         1 UNK      0.144500
     64 H27        11.2450   42.4600    5.9870 ha         1 UNK      0.158000
     65 H28        11.3590   40.4810    7.7750 ha         1 UNK      0.147000
     66 H29        13.9220   39.6920    8.0210 h4         1 UNK      0.162000
     67 H30        28.8960   43.8120    5.5170 hn         1 UNK      0.477133
@<TRIPOS>BOND
    1    35    36 1
    2    34    35 1
    3    33    34 1
    4    33    37 1
    5    31    32 1
    6    30    31 1
    7    29    30 1
    8    28    29 1
    9    27    28 1
   10    27    32 1
   11    24    25 1
   12    24    26 1
   13    21    22 1
   14    20    21 1
   15    20    23 1
   16    20    25 1
   17    19    20 1
   18    18    19 1
   19    16    30 1
   20    16    33 1
   21    16    36 1
   22    14    25 1
   23    12    37 1
   24    11    15 1
   25    11    18 1
   26    11    22 1
   27    10    13 1
   28     9    37 1
   29     8    15 1
   30     7    10 1
   31     7    27 1
   32     6    23 1
   33     6    24 1
   34     5    13 1
   35     5    15 1
   36     5    17 1
   37     4     7 1
   38     3    13 1
   39     2     8 1
   40     2    10 1
   41     1     2 1
   42     1     4 1
   43    36    66 1
   44    35    65 1
   45    34    64 1
   46    32    63 1
   47    31    62 1
   48    29    61 1
   49    28    60 1
   50    26    57 1
   51    26    58 1
   52    26    59 1
   53    25    54 1
   54    24    53 1
   55    23    51 1
   56    23    52 1
   57    22    49 1
   58    22    50 1
   59    21    47 1
   60    21    48 1
   61    19    45 1
   62    19    46 1
   63    18    43 1
   64    18    44 1
   65    17    40 1
   66    17    41 1
   67    17    42 1
   68    14    55 1
   69    14    56 1
   70    14    67 1
   71     4    39 1
   72     1    38 1
@<TRIPOS>SUBSTRUCTURE
      1 UNK               1 ****               0 ****  **** 
