@<TRIPOS>MOLECULE
Cpptraj Generated mol2 file.
   63    67     1     0     0
SMALL
USER_CHARGES


@<TRIPOS>ATOM
      1 C1         21.3280   39.6310    6.2180 cc         1 UNK     -0.094300
      2 N1         21.2060   40.4380    5.0190 na         1 UNK      0.180000
      3 O1         18.9140   42.8880    4.0510 o          1 UNK     -0.574500
      4 S1         13.7200   42.3560    7.5160 sy         1 UNK      1.396300
      5 C2         20.0570   39.6720    6.7730 cd         1 UNK     -0.184000
      6 N2         20.8460   42.2530    3.0930 n          1 UNK     -0.390300
      7 O2         28.1080   42.0230    2.0830 os         1 UNK     -0.397600
      8 C3         19.3610   40.7160    6.0580 cd         1 UNK      0.001000
      9 N3         22.2360   40.6610    4.2010 n2         1 UNK     -0.628100
     10 O3         12.7660   42.0280    6.4460 o          1 UNK     -0.653300
     11 C4         20.0660   41.1360    4.9830 cc         1 UNK     -0.203900
     12 N4         23.0620   41.6710    2.3860 nh         1 UNK     -0.667600
     13 O4         13.6260   41.8000    8.8470 o          1 UNK     -0.653300
     14 C5         19.8360   42.1090    3.9940 c          1 UNK      0.744100
     15 N5         27.0960   43.8390    4.7460 nz         1 UNK     -0.829600
     16 C6         22.0750   41.5120    3.2750 cc         1 UNK      0.591800
     17 C7         20.4920   42.8380    1.7710 c3         1 UNK      0.076300
     18 C8         23.6260   43.0530    2.1700 c3         1 UNK      0.178300
     19 C9         24.8070   43.3280    3.1520 c3         1 UNK     -0.117900
     20 C10        25.9130   42.2420    3.1200 c3         1 UNK     -0.087000
     21 C11        25.3610   40.7680    3.0940 c3         1 UNK     -0.117900
     22 C12        24.0940   40.7170    2.0590 c3         1 UNK      0.178300
     23 C13        26.6980   42.3690    1.8050 c3         1 UNK      0.109400
     24 C14        28.2460   41.9080    3.5510 c3         1 UNK      0.122100
     25 C15        26.9560   42.4690    4.2280 c3         1 UNK      0.069500
     26 C16        29.6310   42.5610    3.9480 c3         1 UNK     -0.124100
     27 C17        15.3570   41.7090    7.0500 ca         1 UNK     -0.369500
     28 C18        15.6990   41.2460    5.7380 ca         1 UNK     -0.021500
     29 C19        16.9890   40.9050    5.3840 ca         1 UNK     -0.130500
     30 C20        18.0080   41.0330    6.3830 ca         1 UNK      0.026000
     31 C21        17.7240   41.3030    7.7100 ca         1 UNK     -0.130500
     32 C22        16.3910   41.7510    8.0220 ca         1 UNK     -0.021500
     33 C23        14.1220   44.0280    7.6580 c3         1 UNK     -0.361300
     34 H1         22.1500   38.9700    6.4600 h4         1 UNK      0.174000
     35 H2         19.8010   39.1000    7.6580 ha         1 UNK      0.177000
     36 H3         19.4320   42.6820    1.5360 h1         1 UNK      0.065367
     37 H4         20.4200   43.9240    1.9120 h1         1 UNK      0.065367
     38 H5         21.1470   42.6380    0.9150 h1         1 UNK      0.065367
     39 H6         22.8520   43.8270    2.2380 h1         1 UNK      0.082450
     40 H7         23.9800   43.1830    1.1400 h1         1 UNK      0.082450
     41 H8         24.3360   43.5200    4.1240 hc         1 UNK      0.062950
     42 H9         25.2470   44.2950    2.8810 hc         1 UNK      0.062950
     43 H10        26.1230   40.0110    2.8750 hc         1 UNK      0.062950
     44 H11        24.9260   40.4750    4.0570 hc         1 UNK      0.062950
     45 H12        23.6490   39.7140    2.0520 h1         1 UNK      0.082450
     46 H13        24.4100   40.7560    1.0090 h1         1 UNK      0.082450
     47 H14        26.6750   43.4190    1.4890 h1         1 UNK      0.084700
     48 H15        26.3740   41.7300    0.9740 h1         1 UNK      0.084700
     49 H16        28.3330   40.8380    3.7750 h1         1 UNK      0.095700
     50 H17        26.7320   41.7590    5.0250 hx         1 UNK      0.124700
     51 H18        27.2550   44.5000    3.9710 hn         1 UNK      0.463133
     52 H19        26.2390   44.2820    5.1060 hn         1 UNK      0.463133
     53 H20        30.3040   41.6950    3.9510 hc         1 UNK      0.070033
     54 H21        29.8310   43.4110    3.2840 hc         1 UNK      0.070033
     55 H22        29.7610   42.9790    4.9540 hc         1 UNK      0.070033
     56 H23        14.9080   41.1400    5.0000 ha         1 UNK      0.160000
     57 H24        17.2270   40.5490    4.3860 ha         1 UNK      0.148500
     58 H25        18.5510   41.4360    8.4010 ha         1 UNK      0.148500
     59 H26        16.2080   42.0250    9.0570 ha         1 UNK      0.160000
     60 H27        14.4980   44.3500    6.6790 h1         1 UNK      0.116367
     61 H28        13.1850   44.5310    7.9250 h1         1 UNK      0.116367
     62 H29        14.8730   44.1890    8.4410 h1         1 UNK      0.116367
     63 H30        27.7960   43.9420    5.4940 hn         1 UNK      0.463133
@<TRIPOS>BOND
    1    31    32 1
    2    30    31 1
    3    29    30 1
    4    28    29 1
    5    27    28 1
    6    27    32 1
    7    24    25 1
    8    24    26 1
    9    21    22 1
   10    20    21 1
   11    20    23 1
   12    20    25 1
   13    19    20 1
   14    18    19 1
   15    15    25 1
   16    12    16 1
   17    12    18 1
   18    12    22 1
   19    11    14 1
   20     9    16 1
   21     8    11 1
   22     8    30 1
   23     7    23 1
   24     7    24 1
   25     6    14 1
   26     6    16 1
   27     6    17 1
   28     5     8 1
   29     4    10 1
   30     4    13 1
   31     4    27 1
   32     4    33 1
   33     3    14 1
   34     2     9 1
   35     2    11 1
   36     1     2 1
   37     1     5 1
   38    33    60 1
   39    33    61 1
   40    33    62 1
   41    32    59 1
   42    31    58 1
   43    29    57 1
   44    28    56 1
   45    26    53 1
   46    26    54 1
   47    26    55 1
   48    25    50 1
   49    24    49 1
   50    23    47 1
   51    23    48 1
   52    22    45 1
   53    22    46 1
   54    21    43 1
   55    21    44 1
   56    19    41 1
   57    19    42 1
   58    18    39 1
   59    18    40 1
   60    17    36 1
   61    17    37 1
   62    17    38 1
   63    15    51 1
   64    15    52 1
   65    15    63 1
   66     5    35 1
   67     1    34 1
@<TRIPOS>SUBSTRUCTURE
      1 UNK               1 ****               0 ****  **** 
