@<TRIPOS>MOLECULE
5OD
   35    37     1     0     0
SMALL
bcc


@<TRIPOS>ATOM
      1 C1          21.0510    40.7360     4.9330 cp       523 5OD       0.315500
      2 C3          22.3040    41.9870     3.3890 ca       523 5OD       0.272900
      3 C11         26.8860    41.3930     3.8170 c3       523 5OD      -0.108900
      4 C12         27.1970    42.7380     3.0440 c3       523 5OD      -0.078400
      5 C13         25.8660    43.5020     2.7240 c3       523 5OD      -0.108900
      6 C14         24.7590    42.6120     2.1010 c3       523 5OD       0.178300
      7 C15         19.4320    40.7620     6.8640 ca       523 5OD      -0.105500
      8 C16         18.1370    40.5960     7.3700 ca       523 5OD      -0.135000
      9 C17         17.0850    40.1870     6.5240 ca       523 5OD      -0.121000
     10 C18         17.3520    39.8990     5.1690 ca       523 5OD      -0.135000
     11 C19         18.6480    40.1100     4.6580 ca       523 5OD      -0.105500
     12 N2          21.1390    41.7310     4.0090 nb       523 5OD      -0.613000
     13 C4          23.4310    41.1720     3.6090 ca       523 5OD       0.498900
     14 N5          23.3420    40.1800     4.5450 nb       523 5OD      -0.680000
     15 C6          22.1830    39.9260     5.2010 ca       523 5OD       0.316900
     16 C8          19.6960    40.5400     5.5090 cp       523 5OD      -0.137500
     17 N9          24.6090    41.4200     2.9630 nh       523 5OD      -0.711300
     18 C10         25.7670    40.5530     3.1260 c3       523 5OD       0.178300
     19 H3          22.3760    42.8270     2.7140 h4       523 5OD       0.037100
     20 H112        27.7960    40.7950     3.8590 hc       523 5OD       0.052450
     21 H113        26.5730    41.6330     4.8330 hc       523 5OD       0.052450
     22 H132        26.0930    44.3060     2.0240 hc       523 5OD       0.052450
     23 H133        25.4840    43.9400     3.6460 hc       523 5OD       0.052450
     24 H142        23.8190    43.1620     2.0600 h1       523 5OD       0.059200
     25 H143        25.0520    42.3070     1.0970 h1       523 5OD       0.059200
     26 H17         16.0810    40.0950     6.9110 ha       523 5OD       0.132000
     27 H18         16.5690    39.5200     4.5290 ha       523 5OD       0.133500
     28 H19         18.8440    39.9430     3.6090 ha       523 5OD       0.140500
     29 H102        26.1110    40.2040     2.1520 h1       523 5OD       0.059200
     30 H103        25.5050    39.7000     3.7520 h1       523 5OD       0.059200
     31 H122        27.7110    42.5060     2.1110 hc       523 5OD       0.041700
     32 H123        27.8360    43.3690     3.6610 hc       523 5OD       0.041700
     33 H15         20.2320    41.0630     7.5240 ha       523 5OD       0.140500
     34 H16         17.9420    40.7820     8.4160 ha       523 5OD       0.133500
     35 H6          22.1230    39.1190     5.9160 h4       523 5OD       0.033100
@<TRIPOS>BOND
     1     1    12 ar  
     2     1    15 ar  
     3     1    16 1   
     4     2    12 ar  
     5     2    13 ar  
     6     2    19 1   
     7     3     4 1   
     8     3    18 1   
     9     3    20 1   
    10     3    21 1   
    11     4     5 1   
    12     4    31 1   
    13     4    32 1   
    14     5     6 1   
    15     5    22 1   
    16     5    23 1   
    17     6    17 1   
    18     6    24 1   
    19     6    25 1   
    20     7     8 ar  
    21     7    16 ar  
    22     7    33 1   
    23     8     9 ar  
    24     8    34 1   
    25     9    10 ar  
    26     9    26 1   
    27    10    11 ar  
    28    10    27 1   
    29    11    16 ar  
    30    11    28 1   
    31    13    14 ar  
    32    13    17 1   
    33    14    15 ar  
    34    15    35 1   
    35    17    18 1   
    36    18    29 1   
    37    18    30 1   
@<TRIPOS>SUBSTRUCTURE
     1 5OD         1 TEMP              0 ****  ****    0 ROOT
