@<TRIPOS>MOLECULE
Cpptraj Generated mol2 file.
   57    61     1     0     0
SMALL
USER_CHARGES


@<TRIPOS>ATOM
      1 C1         17.1210   40.9450    6.3690 ca         1 026      0.038400
      2 C11        20.2690   41.1230    5.3850 cc         1 026     -0.201900
      3 C15        22.2530   41.3820    3.6220 cc         1 026      0.590800
      4 C17        20.0700   42.1840    4.4010 c          1 026      0.744100
      5 C19        20.9240   43.0080    2.2120 c3         1 026      0.076300
      6 C2         18.2630   41.1370    7.0610 ca         1 026     -0.019000
      7 C21        24.3530   40.5470    2.5340 c3         1 026      0.178300
      8 C22        25.5460   40.7490    3.5210 c3         1 026     -0.118400
      9 C23        26.1430   42.1900    3.4980 c3         1 026     -0.087000
     10 C24        25.0150   43.2070    3.7030 c3         1 026     -0.118400
     11 C25        23.8640   43.0060    2.7120 c3         1 026      0.178300
     12 C26        27.3160   42.3910    4.5530 c3         1 026      0.069500
     13 C27        28.5330   42.1900    3.5710 c3         1 026      0.122100
     14 C29        26.9060   42.4730    2.0910 c3         1 026      0.109400
     15 C3         18.2460   41.8480    8.2900 ca         1 026     -0.093000
     16 C30        29.8910   42.8490    4.0000 c3         1 026     -0.124100
     17 C4         17.0300   42.2830    8.8840 ca         1 026     -0.119000
     18 C5         15.8590   41.9800    8.2030 ca         1 026     -0.103000
     19 C6         15.9160   41.4460    6.8720 ca         1 026      0.015400
     20 C7         19.6210   40.6550    6.5430 cd         1 026      0.006000
     21 C8         20.4190   39.7220    7.2330 cd         1 026     -0.174000
     22 C9         21.5520   39.5370    6.4960 cc         1 026     -0.100300
     23 N10        21.4270   40.3460    5.3110 na         1 026      0.179000
     24 N14        22.4860   40.5560    4.5340 n2         1 026     -0.630100
     25 N16        21.0830   42.2080    3.4480 n          1 026     -0.392300
     26 N20        23.3090   41.6530    2.7870 nh         1 026     -0.667600
     27 N31        27.2760   43.7570    5.2560 nz         1 026     -0.829600
     28 O18        19.1710   43.0010    4.4470 o          1 026     -0.561500
     29 O28        28.2320   42.8880    2.3360 os         1 026     -0.397600
     30 Cl12       17.1090   40.1800    4.7960 cl         1 026     -0.069400
     31 Cl13       14.5530   41.4730    5.8780 cl         1 026     -0.060400
     32 H212       23.8750   39.5610    2.5950 h1         1 026      0.081950
     33 H213       24.8250   40.6050    1.5450 h1         1 026      0.081950
     34 H222       25.2480   40.4430    4.5320 hc         1 026      0.062950
     35 H223       26.3610   40.0330    3.3610 hc         1 026      0.062950
     36 H242       24.6310   43.1080    4.7260 hc         1 026      0.062950
     37 H243       25.3950   44.2200    3.5250 hc         1 026      0.062950
     38 H252       24.1950   43.1600    1.6780 h1         1 026      0.081950
     39 H253       23.1780   43.7620    3.1130 h1         1 026      0.081950
     40 H26        27.3100   41.5850    5.2880 hx         1 026      0.124700
     41 H27        28.6260   41.1150    3.3760 h1         1 026      0.095700
     42 H292       26.4280   43.1870    1.4080 h1         1 026      0.084700
     43 H293       27.0430   41.4790    1.6460 h1         1 026      0.084700
     44 H3         19.1160   42.0510    8.9080 ha         1 026      0.144000
     45 H4         17.0420   42.7750    9.8520 ha         1 026      0.148000
     46 H5         14.8580   42.2630    8.5160 ha         1 026      0.158000
     47 H8         20.1970   39.2410    8.1780 ha         1 026      0.178000
     48 H9         22.3520   38.8250    6.6530 h4         1 026      0.172000
     49 H311       26.3730   43.9320    5.7190 hn         1 026      0.463133
     50 H312       28.0580   43.8720    5.9160 hn         1 026      0.463133
     51 H313       27.3790   44.5310    4.5850 hn         1 026      0.463133
     52 H191       19.8760   43.1930    1.9450 h1         1 026      0.063700
     53 H192       21.3550   44.0140    2.2840 h1         1 026      0.063700
     54 H193       21.4640   42.5710    1.3630 h1         1 026      0.063700
     55 H301       29.9250   42.5380    5.0510 hc         1 026      0.069367
     56 H302       30.7000   42.3290    3.4720 hc         1 026      0.069367
     57 H303       30.0080   43.9360    3.9100 hc         1 026      0.069367
@<TRIPOS>BOND
    1    23    24 1
    2    22    23 1
    3    21    22 1
    4    20    21 1
    5    19    31 1
    6    18    19 1
    7    17    18 1
    8    15    17 1
    9    14    29 1
   10    13    16 1
   11    13    29 1
   12    12    13 1
   13    12    27 1
   14    11    26 1
   15    10    11 1
   16     9    10 1
   17     9    12 1
   18     9    14 1
   19     8     9 1
   20     7     8 1
   21     7    26 1
   22     6    15 1
   23     6    20 1
   24     5    25 1
   25     4    25 1
   26     4    28 1
   27     3    24 1
   28     3    25 1
   29     3    26 1
   30     2     4 1
   31     2    20 1
   32     2    23 1
   33     1     6 1
   34     1    19 1
   35     1    30 1
   36    27    49 1
   37    27    50 1
   38    27    51 1
   39    22    48 1
   40    21    47 1
   41    18    46 1
   42    17    45 1
   43    16    55 1
   44    16    56 1
   45    16    57 1
   46    15    44 1
   47    14    42 1
   48    14    43 1
   49    13    41 1
   50    12    40 1
   51    11    38 1
   52    11    39 1
   53    10    36 1
   54    10    37 1
   55     8    34 1
   56     8    35 1
   57     7    32 1
   58     7    33 1
   59     5    52 1
   60     5    53 1
   61     5    54 1
@<TRIPOS>SUBSTRUCTURE
      1 026               1 ****               0 ****  **** 
