@<TRIPOS>MOLECULE
UNK
   63    67     1     0     0
SMALL
bcc


@<TRIPOS>ATOM
      1 C1          22.0990    39.5020     6.2840 cc       900 UNK      -0.094300
      2 N1          22.0600    40.2650     5.1370 na       900 UNK       0.180000
      3 O1          19.5910    42.3780     3.6690 o        900 UNK      -0.574500
      4 S1          14.3620    42.2670     7.2450 sy       900 UNK       1.396300
      5 C2          20.8850    39.6380     6.8920 cd       900 UNK      -0.184000
      6 N2          21.7160    41.8800     2.9910 n        900 UNK      -0.390300
      7 O2          28.9740    42.5470     1.8910 os       900 UNK      -0.397600
      8 C3          20.0520    40.4250     6.0450 cd       900 UNK       0.001000
      9 N3          23.1470    40.4430     4.2880 n2       900 UNK      -0.628100
     10 O3          13.4670    41.9070     6.1340 o        900 UNK      -0.653300
     11 C4          20.8190    40.8530     4.9850 cc       900 UNK      -0.203900
     12 N4          24.0080    41.5300     2.3830 nh       900 UNK      -0.667600
     13 O4          14.0020    41.9370     8.6330 o        900 UNK      -0.653300
     14 C5          20.6510    41.7620     3.8290 c        900 UNK       0.744100
     15 N5          28.2020    43.3080     4.6200 nz       900 UNK      -0.829600
     16 C6          22.9690    41.2450     3.2780 cc       900 UNK       0.591800
     17 C7          21.5190    42.6250     1.7290 c3       900 UNK       0.076300
     18 C8          24.5840    42.8700     2.3080 c3       900 UNK       0.178300
     19 C9          25.7920    43.0180     3.2480 c3       900 UNK      -0.117900
     20 C10         26.9070    41.9820     2.9310 c3       900 UNK      -0.087000
     21 C11         26.2490    40.5750     2.9120 c3       900 UNK      -0.117900
     22 C12         24.9950    40.5150     2.0090 c3       900 UNK       0.178300
     23 C13         27.6090    42.2980     1.5840 c3       900 UNK       0.109400
     24 C14         29.3110    41.7520     3.0110 c3       900 UNK       0.122100
     25 C15         28.0970    42.0060     3.9260 c3       900 UNK       0.069500
     26 C16         30.7120    42.1020     3.5420 c3       900 UNK      -0.124100
     27 C17         15.9960    41.6010     6.9090 ca       900 UNK      -0.369500
     28 C18         16.3240    41.1290     5.6230 ca       900 UNK      -0.021500
     29 C19         17.6420    40.7110     5.3470 ca       900 UNK      -0.130500
     30 C20         18.6470    40.7720     6.3390 ca       900 UNK       0.026000
     31 C21         18.2840    41.1960     7.6380 ca       900 UNK      -0.130500
     32 C22         16.9710    41.6210     7.9240 ca       900 UNK      -0.021500
     33 C23         14.5800    44.0780     7.1650 c3       900 UNK      -0.361300
     34 H1          22.9930    38.9650     6.5690 h4       900 UNK       0.174000
     35 H2          20.6120    39.1820     7.8280 ha       900 UNK       0.177000
     36 H3          20.5060    42.5150     1.3420 h1       900 UNK       0.065367
     37 H4          21.6890    43.6900     1.8880 h1       900 UNK       0.065367
     38 H5          22.1630    42.2940     0.9160 h1       900 UNK       0.065367
     39 H6          23.8470    43.6240     2.5730 h1       900 UNK       0.082450
     40 H7          24.8660    43.0760     1.2730 h1       900 UNK       0.082450
     41 H8          25.4590    42.9020     4.2810 hc       900 UNK       0.062950
     42 H9          26.1680    44.0400     3.1620 hc       900 UNK       0.062950
     43 H10         26.9640    39.8190     2.5900 hc       900 UNK       0.062950
     44 H11         25.9600    40.2950     3.9250 hc       900 UNK       0.062950
     45 H12         24.5500    39.5200     2.0600 h1       900 UNK       0.082450
     46 H13         25.2740    40.6640     0.9670 h1       900 UNK       0.082450
     47 H14         27.1910    43.1670     1.0700 h1       900 UNK       0.084700
     48 H15         27.5590    41.4560     0.8910 h1       900 UNK       0.084700
     49 H16         29.3190    40.7070     2.6930 h1       900 UNK       0.095700
     50 H17         28.0140    41.2320     4.6900 hx       900 UNK       0.124700
     51 H18         28.3040    44.0450     3.9340 hn       900 UNK       0.463133
     52 H19         27.3600    43.4780     5.1520 hn       900 UNK       0.463133
     53 H20         31.0520    41.3960     4.3030 hc       900 UNK       0.070033
     54 H21         31.4380    42.0420     2.7270 hc       900 UNK       0.070033
     55 H22         30.7740    43.1130     3.9440 hc       900 UNK       0.070033
     56 H23         15.5780    41.1050     4.8440 ha       900 UNK       0.160000
     57 H24         17.8910    40.3620     4.3550 ha       900 UNK       0.148500
     58 H25         19.0300    41.2330     8.4200 ha       900 UNK       0.148500
     59 H26         16.7190    41.9750     8.9110 ha       900 UNK       0.160000
     60 H27         13.6190    44.5550     7.3610 h1       900 UNK       0.116367
     61 H28         15.3080    44.3870     7.9110 h1       900 UNK       0.116367
     62 H29         14.9140    44.3360     6.1640 h1       900 UNK       0.116367
     63 H30         28.9850    43.3470     5.2710 hn       900 UNK       0.463133
@<TRIPOS>BOND
     1     1     2 1   
     2     1     5 2   
     3     1    34 1   
     4     2     9 1   
     5     2    11 1   
     6     3    14 2   
     7     4    10 2   
     8     4    13 2   
     9     4    27 1   
    10     4    33 1   
    11     5     8 1   
    12     5    35 1   
    13     6    14 1   
    14     6    16 1   
    15     6    17 1   
    16     7    23 1   
    17     7    24 1   
    18     8    11 2   
    19     8    30 1   
    20     9    16 2   
    21    11    14 1   
    22    12    16 1   
    23    12    18 1   
    24    12    22 1   
    25    15    25 1   
    26    15    51 1   
    27    15    52 1   
    28    15    63 1   
    29    17    36 1   
    30    17    37 1   
    31    17    38 1   
    32    18    19 1   
    33    18    39 1   
    34    18    40 1   
    35    19    20 1   
    36    19    41 1   
    37    19    42 1   
    38    20    21 1   
    39    20    23 1   
    40    20    25 1   
    41    21    22 1   
    42    21    43 1   
    43    21    44 1   
    44    22    45 1   
    45    22    46 1   
    46    23    47 1   
    47    23    48 1   
    48    24    25 1   
    49    24    26 1   
    50    24    49 1   
    51    25    50 1   
    52    26    53 1   
    53    26    54 1   
    54    26    55 1   
    55    27    28 ar  
    56    27    32 ar  
    57    28    29 ar  
    58    28    56 1   
    59    29    30 ar  
    60    29    57 1   
    61    30    31 ar  
    62    31    32 ar  
    63    31    58 1   
    64    32    59 1   
    65    33    60 1   
    66    33    61 1   
    67    33    62 1   
@<TRIPOS>SUBSTRUCTURE
     1 UNK         1 TEMP              0 ****  ****    0 ROOT
